<?xml version="1.0" encoding="UTF-8"?>

<!-- generated on 2023-11-21 07:51:49 by Eclipse SUMO netedit Version 1.17.0
<configuration xmlns:xsi="http://www.w3.org/2001/XMLSchema-instance" xsi:noNamespaceSchemaLocation="http://sumo.dlr.de/xsd/netconvertConfiguration.xsd">

    <input>
        <sumocfg-file value="C:\Sumo\Thesis2\Maps\SwarmOptimizationinPSO\demo_network.sumocfg"/>
        <sumo-net-file value="C:\Sumo\Thesis2\Maps\SwarmOptimizationinPSO\demo_network.net.xml"/>
    </input>

    <output>
        <output-file value="C:\Sumo\Thesis2\Maps\SwarmOptimizationinPSO\demo_network.net.xml"/>
    </output>

    <processing>
        <geometry.min-radius.fix.railways value="false"/>
        <geometry.max-grade.fix value="false"/>
        <offset.disable-normalization value="true"/>
        <lefthand value="0"/>
    </processing>

    <junctions>
        <no-turnarounds value="true"/>
        <junctions.corner-detail value="5"/>
        <junctions.limit-turn-speed value="5.50"/>
        <rectangular-lane-cut value="0"/>
    </junctions>

    <pedestrian>
        <walkingareas value="0"/>
    </pedestrian>

</configuration>
-->

<net version="1.16" junctionCornerDetail="5" limitTurnSpeed="5.50" xmlns:xsi="http://www.w3.org/2001/XMLSchema-instance" xsi:noNamespaceSchemaLocation="http://sumo.dlr.de/xsd/net_file.xsd">

    <location netOffset="0.00,0.00" convBoundary="-40.06,15.15,139.38,104.70" origBoundary="-10000000000.00,-10000000000.00,10000000000.00,10000000000.00" projParameter="!"/>

    <edge id=":J0_0" function="internal">
        <lane id=":J0_0_0" index="0" speed="8.42" length="14.17" shape="-22.80,59.60 -24.32,56.10 -24.48,52.84 -23.26,49.81 -20.67,47.00"/>
        <lane id=":J0_0_1" index="1" speed="7.00" length="9.51" shape="-20.07,57.93 -21.09,55.58 -21.20,53.39 -20.38,51.36 -18.64,49.48"/>
        <lane id=":J0_0_2" index="2" speed="5.21" length="4.84" shape="-17.34,56.26 -17.86,55.06 -17.92,53.95 -17.50,52.91 -16.61,51.95"/>
    </edge>
    <edge id=":J0_3" function="internal">
        <lane id=":J0_3_0" index="0" speed="12.18" length="12.08" shape="-29.59,52.63 -26.66,52.21 -24.78,51.06 -23.08,49.29 -20.67,47.00"/>
        <lane id=":J0_3_1" index="1" speed="12.62" length="12.08" shape="-29.59,52.63 -26.39,52.63 -23.89,52.40 -21.51,51.49 -18.64,49.48"/>
        <lane id=":J0_3_2" index="2" speed="13.52" length="12.08" shape="-29.59,52.63 -26.16,53.09 -23.11,53.82 -20.06,53.79 -16.61,51.95"/>
    </edge>
    <edge id=":J1_0" function="internal">
        <lane id=":J1_0_0" index="0" speed="7.61" length="17.47" shape="29.03,22.07 27.06,16.94 27.36,13.28 29.93,11.08 34.79,10.35"/>
        <lane id=":J1_0_1" index="1" speed="5.95" length="10.12" shape="31.86,20.57 30.64,17.50 30.73,15.30 32.11,13.99 34.79,13.55"/>
    </edge>
    <edge id=":J1_2" function="internal">
        <lane id=":J1_2_0" index="0" speed="16.18" length="17.69" shape="17.58,15.64 22.05,11.75 25.37,9.11 29.10,7.62 34.79,7.15"/>
        <lane id=":J1_2_1" index="1" speed="15.27" length="17.69" shape="19.61,18.11 23.56,14.62 26.47,12.20 29.75,10.80 34.79,10.35"/>
        <lane id=":J1_2_2" index="2" speed="14.31" length="17.69" shape="21.63,20.59 25.07,17.49 27.58,15.30 30.40,13.98 34.79,13.55"/>
    </edge>
    <edge id=":J2_0" function="internal">
        <lane id=":J2_0_0" index="0" speed="8.83" length="3.24" shape="84.50,7.15 86.09,7.19 87.18,7.40 88.17,7.91 89.44,8.86"/>
        <lane id=":J2_0_1" index="1" speed="6.96" length="3.24" shape="84.50,10.35 85.45,10.37 86.11,10.50 86.70,10.81 87.47,11.38"/>
        <lane id=":J2_0_2" index="2" speed="4.37" length="3.24" shape="84.50,13.55 84.82,13.56 85.04,13.60 85.23,13.70 85.49,13.89"/>
    </edge>
    <edge id=":J3_0" function="internal">
        <lane id=":J3_0_0" index="0" speed="7.47" length="9.00" shape="121.31,33.91 123.02,34.79 124.98,34.94 127.22,34.37 129.71,33.08"/>
    </edge>
    <edge id=":J3_1" function="internal">
        <lane id=":J3_1_0" index="0" speed="10.54" length="12.48" shape="121.31,33.91 123.62,36.14 125.26,38.69 126.25,41.56 126.58,44.75"/>
        <lane id=":J3_1_1" index="1" speed="9.30" length="9.59" shape="119.34,36.43 121.10,38.14 122.37,40.10 123.13,42.30 123.38,44.75"/>
        <lane id=":J3_1_2" index="2" speed="7.85" length="6.69" shape="117.36,38.94 118.59,40.14 119.47,41.51 120.00,43.04 120.18,44.75"/>
    </edge>
    <edge id=":J4_0" function="internal">
        <lane id=":J4_0_0" index="0" speed="8.10" length="7.49" shape="126.58,80.22 126.38,82.14 125.77,83.85 124.75,85.35 123.33,86.66"/>
        <lane id=":J4_0_1" index="1" speed="6.41" length="4.49" shape="123.38,80.22 123.26,81.37 122.89,82.40 122.28,83.30 121.43,84.08"/>
        <lane id=":J4_0_2" index="2" speed="4.08" length="1.50" shape="120.18,80.22 120.14,80.60 120.02,80.95 119.81,81.25 119.53,81.51"/>
    </edge>
    <edge id=":J5_0" function="internal">
        <lane id=":J5_0_0" index="0" speed="8.94" length="3.11" shape="90.18,111.14 88.94,112.01 87.98,112.48 86.93,112.67 85.40,112.70"/>
        <lane id=":J5_0_1" index="1" speed="7.05" length="3.11" shape="88.28,108.56 87.53,109.09 86.96,109.37 86.33,109.48 85.41,109.50"/>
        <lane id=":J5_0_2" index="2" speed="4.42" length="3.11" shape="86.38,105.99 86.13,106.16 85.94,106.26 85.73,106.29 85.42,106.30"/>
    </edge>
    <edge id=":J6_0" function="internal">
        <lane id=":J6_0_0" index="0" speed="10.24" length="2.27" shape="32.95,112.52 31.84,112.50 31.07,112.40 30.34,112.14 29.34,111.64"/>
        <lane id=":J6_0_1" index="1" speed="8.04" length="2.27" shape="32.96,109.32 32.29,109.31 31.83,109.25 31.40,109.09 30.80,108.79"/>
        <lane id=":J6_0_2" index="2" speed="24.00" length="2.27" shape="32.97,106.12 32.75,106.12 32.60,106.10 32.45,106.04 32.25,105.94"/>
    </edge>
    <edge id=":J7_0" function="internal">
        <lane id=":J7_0_0" index="0" speed="19.06" length="16.98" shape="5.47,99.45 0.79,96.66 -1.89,94.00 -3.95,90.64 -6.73,85.81"/>
        <lane id=":J7_0_1" index="1" speed="18.15" length="16.98" shape="6.92,96.60 2.71,94.06 0.32,91.61 -1.50,88.53 -4.00,84.13"/>
        <lane id=":J7_0_2" index="2" speed="17.20" length="16.98" shape="8.38,93.75 4.62,91.46 2.53,89.22 0.94,86.42 -1.27,82.46"/>
    </edge>
    <edge id=":J7_3" function="internal">
        <lane id=":J7_3_0" index="0" speed="6.54" length="13.56" shape="8.38,93.75 4.57,91.27 3.07,88.89 3.86,86.61 6.95,84.42"/>
        <lane id=":J7_3_1" index="1" speed="5.57" length="9.39" shape="8.38,93.75 5.99,92.13 5.19,90.51 6.00,88.89 8.39,87.28"/>
    </edge>
    <edge id=":J8_0" function="internal">
        <lane id=":J8_0_0" index="0" speed="3.90" length="2.62" shape="49.06,63.23 49.65,62.81 49.96,62.31 50.00,61.72 49.75,61.05"/>
        <lane id=":J8_0_1" index="1" speed="6.07" length="7.87" shape="50.50,66.08 52.27,64.85 53.21,63.34 53.31,61.58 52.58,59.54"/>
    </edge>

    <edge id="e0" from="J9" to="J0" priority="-1" length="100.00">
        <lane id="e0_0" index="0" speed="30.00" length="100.00" shape="-40.07,52.71 -29.59,52.63"/>
    </edge>
    <edge id="e1" from="J0" to="J1" priority="-1" length="100.00" shape="-16.76,54.14 8.45,33.47 30.79,15.15">
        <lane id="e1_0" index="0" speed="24.00" length="100.00" shape="-20.67,47.00 3.38,27.28 17.58,15.64"/>
        <lane id="e1_1" index="1" speed="24.00" length="100.00" shape="-18.64,49.48 5.41,29.76 19.61,18.11"/>
        <lane id="e1_2" index="2" speed="24.00" length="100.00" shape="-16.61,51.95 7.44,32.23 21.63,20.59"/>
    </edge>
    <edge id="e10" from="J8" to="J1" priority="-1" length="100.00" shape="57.06,64.57 47.10,45.83 30.79,15.15">
        <lane id="e10_0" index="0" speed="15.00" length="100.00" shape="49.75,61.05 42.86,48.08 29.03,22.07"/>
        <lane id="e10_1" index="1" speed="15.00" length="100.00" shape="52.58,59.54 45.69,46.58 31.86,20.57"/>
    </edge>
    <edge id="e11" from="J3" to="J11" priority="-1" shape="118.58,41.94 129.46,35.13 139.38,28.91">
        <lane id="e11_0" index="0" speed="13.89" length="10.41" shape="129.71,33.08 138.53,27.55"/>
    </edge>
    <edge id="e2" from="J1" to="J2" priority="-1" length="1400.00" shape="30.79,15.15 61.10,15.15 84.50,15.15">
        <lane id="e2_0" index="0" speed="24.00" length="1400.00" shape="34.79,7.15 61.10,7.15 84.50,7.15"/>
        <lane id="e2_1" index="1" speed="24.00" length="1400.00" shape="34.79,10.35 61.10,10.35 84.50,10.35"/>
        <lane id="e2_2" index="2" speed="24.00" length="1400.00" shape="34.79,13.55 61.10,13.55 84.50,13.55"/>
    </edge>
    <edge id="e3" from="J2" to="J3" priority="-1" length="100.00" shape="84.50,15.15 102.89,29.61 118.58,41.94">
        <lane id="e3_0" index="0" speed="24.00" length="100.00" shape="89.44,8.86 107.83,23.32 121.31,33.91"/>
        <lane id="e3_1" index="1" speed="24.00" length="100.00" shape="87.47,11.38 105.86,25.84 119.34,36.43"/>
        <lane id="e3_2" index="2" speed="24.00" length="100.00" shape="85.49,13.89 103.88,28.35 117.36,38.94"/>
    </edge>
    <edge id="e4" from="J3" to="J4" priority="-1" length="100.00" shape="118.58,41.94 118.58,60.73 118.58,73.91 118.58,80.22">
        <lane id="e4_0" index="0" speed="24.00" length="100.00" shape="126.58,44.75 126.58,60.73 126.58,73.91 126.58,80.22"/>
        <lane id="e4_1" index="1" speed="24.00" length="100.00" shape="123.38,44.75 123.38,60.73 123.38,73.91 123.38,80.22"/>
        <lane id="e4_2" index="2" speed="24.00" length="100.00" shape="120.18,44.75 120.18,60.73 120.18,73.91 120.18,80.22"/>
    </edge>
    <edge id="e5" from="J4" to="J5" priority="-1" length="100.00" shape="118.58,80.22 106.04,89.48 85.43,104.70">
        <lane id="e5_0" index="0" speed="24.00" length="100.00" shape="123.33,86.66 110.79,95.92 90.18,111.14"/>
        <lane id="e5_1" index="1" speed="24.00" length="100.00" shape="121.43,84.08 108.89,93.34 88.28,108.56"/>
        <lane id="e5_2" index="2" speed="24.00" length="100.00" shape="119.53,81.51 106.99,90.77 86.38,105.99"/>
    </edge>
    <edge id="e6" from="J5" to="J6" priority="-1" length="1400.00" shape="85.43,104.70 54.88,104.60 32.98,104.52">
        <lane id="e6_0" index="0" speed="24.00" length="1400.00" shape="85.40,112.70 54.85,112.60 32.95,112.52"/>
        <lane id="e6_1" index="1" speed="24.00" length="1400.00" shape="85.41,109.50 54.86,109.40 32.96,109.32"/>
        <lane id="e6_2" index="2" speed="24.00" length="1400.00" shape="85.42,106.30 54.87,106.20 32.97,106.12"/>
    </edge>
    <edge id="e7" from="J6" to="J7" priority="-1" length="100.00" shape="32.98,104.52 16.67,96.19 5.54,90.51">
        <lane id="e7_0" index="0" speed="24.00" length="100.00" shape="29.34,111.64 13.03,103.32 5.47,99.45"/>
        <lane id="e7_1" index="1" speed="24.00" length="100.00" shape="30.80,108.79 14.49,100.47 6.92,96.60"/>
        <lane id="e7_2" index="2" speed="24.00" length="100.00" shape="32.25,105.94 15.94,97.62 8.38,93.75"/>
    </edge>
    <edge id="e8" from="J7" to="J0" priority="-1" length="100.00" shape="5.54,90.51 -8.18,68.13 -16.76,54.14">
        <lane id="e8_0" index="0" speed="30.00" length="100.00" shape="-6.73,85.81 -15.00,72.31 -22.80,59.60"/>
        <lane id="e8_1" index="1" speed="30.00" length="100.00" shape="-4.00,84.13 -12.27,70.64 -20.07,57.93"/>
        <lane id="e8_2" index="2" speed="30.00" length="100.00" shape="-1.27,82.46 -9.54,68.97 -17.34,56.26"/>
    </edge>
    <edge id="e9" from="J7" to="J8" priority="-1" length="100.00" shape="5.54,90.51 27.11,79.65 57.06,64.57">
        <lane id="e9_0" index="0" speed="15.00" length="100.00" shape="6.95,84.42 24.95,75.36 49.06,63.23"/>
        <lane id="e9_1" index="1" speed="15.00" length="100.00" shape="8.39,87.28 26.39,78.22 50.50,66.08"/>
    </edge>

    <junction id="J0" type="priority" x="-16.76" y="54.14" incLanes="e8_0 e8_1 e8_2 e0_0" intLanes=":J0_0_0 :J0_0_1 :J0_0_2 :J0_3_0 :J0_3_1 :J0_3_2" shape="-24.16,60.44 -15.98,55.42 -16.28,54.60 -16.27,54.22 -16.16,53.86 -15.93,53.52 -15.60,53.19 -21.69,45.77 -23.22,47.20 -24.32,48.46 -25.24,49.52 -26.25,50.32 -27.62,50.84 -29.60,51.03 -29.58,54.23 -28.26,54.92 -27.42,55.78 -26.46,56.99 -25.37,58.54">
        <request index="0" response="000000" foes="111000" cont="0"/>
        <request index="1" response="000000" foes="111000" cont="0"/>
        <request index="2" response="000000" foes="111000" cont="0"/>
        <request index="3" response="000111" foes="000111" cont="0"/>
        <request index="4" response="000111" foes="000111" cont="0"/>
        <request index="5" response="000111" foes="000111" cont="0"/>
    </junction>
    <junction id="J1" type="priority" x="30.79" y="15.15" incLanes="e10_0 e10_1 e1_0 e1_1 e1_2" intLanes=":J1_0_0 :J1_0_1 :J1_2_0 :J1_2_1 :J1_2_2" shape="27.62,22.82 33.27,19.82 32.34,17.22 32.41,16.32 32.84,15.67 33.64,15.28 34.79,15.15 34.79,5.55 30.47,5.76 27.30,6.42 24.81,7.57 22.52,9.25 19.93,11.52 16.56,14.40 22.65,21.83 24.58,20.81 25.44,20.81 26.23,21.14 26.96,21.81">
        <request index="0" response="11100" foes="11100" cont="0"/>
        <request index="1" response="11100" foes="11100" cont="0"/>
        <request index="2" response="00000" foes="00011" cont="0"/>
        <request index="3" response="00000" foes="00011" cont="0"/>
        <request index="4" response="00000" foes="00011" cont="0"/>
    </junction>
    <junction id="J11" type="dead_end" x="139.38" y="28.91" incLanes="e11_0" intLanes="" shape="137.68,26.20 139.38,28.91"/>
    <junction id="J2" type="priority" x="84.50" y="15.15" incLanes="e2_0 e2_1 e2_2" intLanes=":J2_0_0 :J2_0_1 :J2_0_2" shape="84.50,15.15 90.43,7.60 88.50,6.21 87.72,5.85 86.89,5.65 85.86,5.57 84.50,5.55">
        <request index="0" response="000" foes="000" cont="0"/>
        <request index="1" response="000" foes="000" cont="0"/>
        <request index="2" response="000" foes="000" cont="0"/>
    </junction>
    <junction id="J3" type="priority" x="118.58" y="41.94" incLanes="e3_0 e3_1 e3_2" intLanes=":J3_0_0 :J3_1_0 :J3_1_1 :J3_1_2" shape="118.58,44.75 128.18,44.75 128.25,42.02 128.44,39.69 128.78,37.76 129.24,36.25 129.83,35.14 130.56,34.44 128.86,31.73 126.22,33.03 125.07,33.31 124.03,33.34 123.11,33.12 122.30,32.65 116.37,40.20 117.60,41.48 118.03,42.21 118.33,43.00 118.52,43.84">
        <request index="0" response="0000" foes="0000" cont="0"/>
        <request index="1" response="0000" foes="0000" cont="0"/>
        <request index="2" response="0000" foes="0000" cont="0"/>
        <request index="3" response="0000" foes="0000" cont="0"/>
    </junction>
    <junction id="J4" type="priority" x="118.58" y="80.22" incLanes="e4_0 e4_1 e4_2" intLanes=":J4_0_0 :J4_0_1 :J4_0_2" shape="128.18,80.22 118.58,80.22 124.28,87.94 126.45,85.81 127.21,84.57 127.75,83.23 128.07,81.78">
        <request index="0" response="000" foes="000" cont="0"/>
        <request index="1" response="000" foes="000" cont="0"/>
        <request index="2" response="000" foes="000" cont="0"/>
    </junction>
    <junction id="J5" type="priority" x="85.43" y="104.70" incLanes="e5_0 e5_1 e5_2" intLanes=":J5_0_0 :J5_0_1 :J5_0_2" shape="91.13,112.42 85.43,104.70 85.40,114.30 87.69,114.22 88.49,114.04 89.24,113.71 90.07,113.18">
        <request index="0" response="000" foes="000" cont="0"/>
        <request index="1" response="000" foes="000" cont="0"/>
        <request index="2" response="000" foes="000" cont="0"/>
    </junction>
    <junction id="J6" type="priority" x="32.98" y="104.52" incLanes="e6_0 e6_1 e6_2" intLanes=":J6_0_0 :J6_0_1 :J6_0_2" shape="32.94,114.12 32.98,104.52 28.61,113.07 30.12,113.79 30.69,113.97 31.27,114.07 31.99,114.11">
        <request index="0" response="000" foes="000" cont="0"/>
        <request index="1" response="000" foes="000" cont="0"/>
        <request index="2" response="000" foes="000" cont="0"/>
    </junction>
    <junction id="J7" type="priority" x="5.54" y="90.51" incLanes="e7_0 e7_1 e7_2" intLanes=":J7_0_0 :J7_0_1 :J7_0_2 :J7_3_0 :J7_3_1" shape="4.74,100.88 9.10,92.33 7.52,91.12 7.32,90.51 7.52,89.91 8.12,89.31 9.11,88.71 6.23,82.99 3.75,83.75 2.67,83.67 1.70,83.29 0.84,82.61 0.09,81.62 -8.09,86.64 -5.99,90.23 -4.44,93.00 -3.00,95.19 -1.27,97.07 1.17,98.88">
        <request index="0" response="00000" foes="00000" cont="0"/>
        <request index="1" response="00000" foes="00000" cont="0"/>
        <request index="2" response="00000" foes="00000" cont="0"/>
        <request index="3" response="00000" foes="00000" cont="0"/>
        <request index="4" response="00000" foes="00000" cont="0"/>
    </junction>
    <junction id="J8" type="priority" x="57.06" y="64.57" incLanes="e9_0 e9_1" intLanes=":J8_0_0 :J8_0_1" shape="53.99,58.79 48.34,61.80 51.22,67.51 52.92,66.45 54.12,65.24 54.83,63.86 55.05,62.33 54.77,60.64">
        <request index="0" response="00" foes="00" cont="0"/>
        <request index="1" response="00" foes="00" cont="0"/>
    </junction>
    <junction id="J9" type="dead_end" x="-40.06" y="54.31" incLanes="" intLanes="" shape="-40.06,54.31 -40.08,51.11"/>

    <connection from="e0" to="e1" fromLane="0" toLane="0" via=":J0_3_0" dir="s" state="m"/>
    <connection from="e0" to="e1" fromLane="0" toLane="1" via=":J0_3_1" dir="s" state="m"/>
    <connection from="e0" to="e1" fromLane="0" toLane="2" via=":J0_3_2" dir="s" state="m"/>
    <connection from="e1" to="e2" fromLane="0" toLane="0" via=":J1_2_0" dir="s" state="M"/>
    <connection from="e1" to="e2" fromLane="1" toLane="1" via=":J1_2_1" dir="s" state="M"/>
    <connection from="e1" to="e2" fromLane="2" toLane="2" via=":J1_2_2" dir="s" state="M"/>
    <connection from="e10" to="e2" fromLane="0" toLane="1" via=":J1_0_0" dir="l" state="m"/>
    <connection from="e10" to="e2" fromLane="1" toLane="2" via=":J1_0_1" dir="l" state="m"/>
    <connection from="e2" to="e3" fromLane="0" toLane="0" via=":J2_0_0" dir="s" state="M"/>
    <connection from="e2" to="e3" fromLane="1" toLane="1" via=":J2_0_1" dir="s" state="M"/>
    <connection from="e2" to="e3" fromLane="2" toLane="2" via=":J2_0_2" dir="s" state="M"/>
    <connection from="e3" to="e11" fromLane="0" toLane="0" via=":J3_0_0" dir="r" state="M"/>
    <connection from="e3" to="e4" fromLane="0" toLane="0" via=":J3_1_0" dir="l" state="M"/>
    <connection from="e3" to="e4" fromLane="1" toLane="1" via=":J3_1_1" dir="l" state="M"/>
    <connection from="e3" to="e4" fromLane="2" toLane="2" via=":J3_1_2" dir="l" state="M"/>
    <connection from="e4" to="e5" fromLane="0" toLane="0" via=":J4_0_0" dir="l" state="M"/>
    <connection from="e4" to="e5" fromLane="1" toLane="1" via=":J4_0_1" dir="l" state="M"/>
    <connection from="e4" to="e5" fromLane="2" toLane="2" via=":J4_0_2" dir="l" state="M"/>
    <connection from="e5" to="e6" fromLane="0" toLane="0" via=":J5_0_0" dir="s" state="M"/>
    <connection from="e5" to="e6" fromLane="1" toLane="1" via=":J5_0_1" dir="s" state="M"/>
    <connection from="e5" to="e6" fromLane="2" toLane="2" via=":J5_0_2" dir="s" state="M"/>
    <connection from="e6" to="e7" fromLane="0" toLane="0" via=":J6_0_0" dir="s" state="M"/>
    <connection from="e6" to="e7" fromLane="1" toLane="1" via=":J6_0_1" dir="s" state="M"/>
    <connection from="e6" to="e7" fromLane="2" toLane="2" via=":J6_0_2" dir="s" state="M"/>
    <connection from="e7" to="e8" fromLane="0" toLane="0" via=":J7_0_0" dir="s" state="M"/>
    <connection from="e7" to="e8" fromLane="1" toLane="1" via=":J7_0_1" dir="s" state="M"/>
    <connection from="e7" to="e8" fromLane="2" toLane="2" via=":J7_0_2" dir="s" state="M"/>
    <connection from="e7" to="e9" fromLane="2" toLane="0" via=":J7_3_0" dir="l" state="M"/>
    <connection from="e7" to="e9" fromLane="2" toLane="1" via=":J7_3_1" dir="l" state="M"/>
    <connection from="e8" to="e1" fromLane="0" toLane="0" via=":J0_0_0" dir="l" state="M"/>
    <connection from="e8" to="e1" fromLane="1" toLane="1" via=":J0_0_1" dir="l" state="M"/>
    <connection from="e8" to="e1" fromLane="2" toLane="2" via=":J0_0_2" dir="l" state="M"/>
    <connection from="e9" to="e10" fromLane="0" toLane="0" via=":J8_0_0" dir="r" state="M"/>
    <connection from="e9" to="e10" fromLane="1" toLane="1" via=":J8_0_1" dir="r" state="M"/>

    <connection from=":J0_0" to="e1" fromLane="0" toLane="0" dir="l" state="M"/>
    <connection from=":J0_0" to="e1" fromLane="1" toLane="1" dir="l" state="M"/>
    <connection from=":J0_0" to="e1" fromLane="2" toLane="2" dir="l" state="M"/>
    <connection from=":J0_3" to="e1" fromLane="0" toLane="0" dir="s" state="M"/>
    <connection from=":J0_3" to="e1" fromLane="1" toLane="1" dir="s" state="M"/>
    <connection from=":J0_3" to="e1" fromLane="2" toLane="2" dir="s" state="M"/>
    <connection from=":J1_0" to="e2" fromLane="0" toLane="1" dir="l" state="M"/>
    <connection from=":J1_0" to="e2" fromLane="1" toLane="2" dir="l" state="M"/>
    <connection from=":J1_2" to="e2" fromLane="0" toLane="0" dir="s" state="M"/>
    <connection from=":J1_2" to="e2" fromLane="1" toLane="1" dir="s" state="M"/>
    <connection from=":J1_2" to="e2" fromLane="2" toLane="2" dir="s" state="M"/>
    <connection from=":J2_0" to="e3" fromLane="0" toLane="0" dir="s" state="M"/>
    <connection from=":J2_0" to="e3" fromLane="1" toLane="1" dir="s" state="M"/>
    <connection from=":J2_0" to="e3" fromLane="2" toLane="2" dir="s" state="M"/>
    <connection from=":J3_0" to="e11" fromLane="0" toLane="0" dir="r" state="M"/>
    <connection from=":J3_1" to="e4" fromLane="0" toLane="0" dir="l" state="M"/>
    <connection from=":J3_1" to="e4" fromLane="1" toLane="1" dir="l" state="M"/>
    <connection from=":J3_1" to="e4" fromLane="2" toLane="2" dir="l" state="M"/>
    <connection from=":J4_0" to="e5" fromLane="0" toLane="0" dir="l" state="M"/>
    <connection from=":J4_0" to="e5" fromLane="1" toLane="1" dir="l" state="M"/>
    <connection from=":J4_0" to="e5" fromLane="2" toLane="2" dir="l" state="M"/>
    <connection from=":J5_0" to="e6" fromLane="0" toLane="0" dir="s" state="M"/>
    <connection from=":J5_0" to="e6" fromLane="1" toLane="1" dir="s" state="M"/>
    <connection from=":J5_0" to="e6" fromLane="2" toLane="2" dir="s" state="M"/>
    <connection from=":J6_0" to="e7" fromLane="0" toLane="0" dir="s" state="M"/>
    <connection from=":J6_0" to="e7" fromLane="1" toLane="1" dir="s" state="M"/>
    <connection from=":J6_0" to="e7" fromLane="2" toLane="2" dir="s" state="M"/>
    <connection from=":J7_0" to="e8" fromLane="0" toLane="0" dir="s" state="M"/>
    <connection from=":J7_0" to="e8" fromLane="1" toLane="1" dir="s" state="M"/>
    <connection from=":J7_0" to="e8" fromLane="2" toLane="2" dir="s" state="M"/>
    <connection from=":J7_3" to="e9" fromLane="0" toLane="0" dir="l" state="M"/>
    <connection from=":J7_3" to="e9" fromLane="1" toLane="1" dir="l" state="M"/>
    <connection from=":J8_0" to="e10" fromLane="0" toLane="0" dir="r" state="M"/>
    <connection from=":J8_0" to="e10" fromLane="1" toLane="1" dir="r" state="M"/>

</net>
