<?xml version="1.0" encoding="UTF-8"?>

<!-- generated on 2023-12-17 10:40:59 by Eclipse SUMO netedit Version 1.17.0
<configuration xmlns:xsi="http://www.w3.org/2001/XMLSchema-instance" xsi:noNamespaceSchemaLocation="http://sumo.dlr.de/xsd/netconvertConfiguration.xsd">

    <input>
        <sumocfg-file value="C:\Sumo\Thesis2\Maps\SwarmOptimizationinPSO4\demo_network.sumocfg"/>
        <sumo-net-file value="C:\Sumo\Thesis2\Maps\SwarmOptimizationinPSO4\demo_network.net.xml"/>
    </input>

    <output>
        <output-file value="C:\Sumo\Thesis2\Maps\SwarmOptimizationinPSO4\demo_network.net.xml"/>
    </output>

    <processing>
        <geometry.min-radius.fix.railways value="false"/>
        <geometry.max-grade.fix value="false"/>
        <offset.disable-normalization value="true"/>
        <lefthand value="0"/>
    </processing>

    <junctions>
        <no-turnarounds value="true"/>
        <junctions.corner-detail value="5"/>
        <junctions.limit-turn-speed value="5.50"/>
        <rectangular-lane-cut value="0"/>
    </junctions>

    <pedestrian>
        <walkingareas value="0"/>
    </pedestrian>

</configuration>
-->

<net version="1.16" junctionCornerDetail="5" limitTurnSpeed="5.50" xmlns:xsi="http://www.w3.org/2001/XMLSchema-instance" xsi:noNamespaceSchemaLocation="http://sumo.dlr.de/xsd/net_file.xsd">

    <location netOffset="0.00,0.00" convBoundary="-16.76,15.15,139.38,104.70" origBoundary="-10000000000.00,-10000000000.00,10000000000.00,10000000000.00" projParameter="!"/>

    <edge id=":J0_0" function="internal">
        <lane id=":J0_0_0" index="0" speed="7.69" length="11.66" shape="-23.58,58.32 -24.84,55.44 -24.97,52.76 -23.96,50.26 -21.83,47.95"/>
        <lane id=":J0_0_1" index="1" speed="6.10" length="7.00" shape="-20.85,56.65 -21.61,54.92 -21.68,53.31 -21.08,51.81 -19.80,50.43"/>
        <lane id=":J0_0_2" index="2" speed="3.92" length="2.33" shape="-18.12,54.98 -18.38,54.40 -18.40,53.86 -18.20,53.36 -17.77,52.90"/>
    </edge>
    <edge id=":J1_0" function="internal">
        <lane id=":J1_0_0" index="0" speed="10.01" length="5.13" shape="24.21,26.04 24.02,20.91"/>
        <lane id=":J1_0_1" index="1" speed="8.88" length="8.07" shape="27.38,25.60 27.06,18.93 27.38,17.57"/>
        <lane id=":J1_0_2" index="2" speed="7.59" length="9.65" shape="30.55,25.16 30.22,20.08 30.81,16.45 31.32,15.73"/>
    </edge>
    <edge id=":J1_6" function="internal">
        <lane id=":J1_6_0" index="0" speed="10.01" length="20.06" shape="24.02,20.91 23.90,17.77 25.56,11.87 29.19,8.33 34.79,7.15"/>
    </edge>
    <edge id=":J1_7" function="internal">
        <lane id=":J1_7_0" index="0" speed="8.88" length="11.49" shape="27.38,17.57 28.19,14.16 30.76,11.30 34.79,10.35"/>
    </edge>
    <edge id=":J1_8" function="internal">
        <lane id=":J1_8_0" index="0" speed="7.59" length="4.33" shape="31.32,15.73 32.34,14.28 34.79,13.55"/>
    </edge>
    <edge id=":J1_3" function="internal">
        <lane id=":J1_3_0" index="0" speed="18.01" length="22.55" shape="13.92,18.64 19.39,13.66 23.34,10.06 27.80,7.88 34.79,7.15"/>
        <lane id=":J1_3_1" index="1" speed="17.21" length="22.55" shape="15.95,21.12 20.90,16.53 24.44,13.15 28.45,11.06 34.79,10.35"/>
        <lane id=":J1_3_2" index="2" speed="16.37" length="22.55" shape="17.97,23.59 22.42,19.40 25.55,16.24 29.10,14.25 34.79,13.55"/>
    </edge>
    <edge id=":J2_0" function="internal">
        <lane id=":J2_0_0" index="0" speed="8.83" length="3.24" shape="84.50,7.15 86.09,7.19 87.18,7.40 88.17,7.91 89.44,8.86"/>
        <lane id=":J2_0_1" index="1" speed="6.96" length="3.24" shape="84.50,10.35 85.45,10.37 86.11,10.50 86.70,10.81 87.47,11.38"/>
        <lane id=":J2_0_2" index="2" speed="4.37" length="3.24" shape="84.50,13.55 84.82,13.56 85.04,13.60 85.23,13.70 85.49,13.89"/>
    </edge>
    <edge id=":J3_0" function="internal">
        <lane id=":J3_0_0" index="0" speed="8.15" length="7.24" shape="123.52,35.65 124.86,36.94 125.82,38.42 126.39,40.09 126.58,41.94"/>
        <lane id=":J3_0_1" index="1" speed="6.45" length="4.35" shape="121.55,38.17 122.35,38.94 122.92,39.83 123.27,40.83 123.38,41.94"/>
        <lane id=":J3_0_2" index="2" speed="4.10" length="1.45" shape="119.57,40.68 119.84,40.94 120.03,41.24 120.14,41.57 120.18,41.94"/>
    </edge>
    <edge id=":J4_0" function="internal">
        <lane id=":J4_0_0" index="0" speed="8.10" length="7.49" shape="126.58,80.22 126.38,82.14 125.77,83.85 124.75,85.35 123.33,86.66"/>
        <lane id=":J4_0_1" index="1" speed="6.41" length="4.49" shape="123.38,80.22 123.26,81.37 122.89,82.40 122.28,83.30 121.43,84.08"/>
        <lane id=":J4_0_2" index="2" speed="4.08" length="1.50" shape="120.18,80.22 120.14,80.60 120.02,80.95 119.81,81.25 119.53,81.51"/>
    </edge>
    <edge id=":J5_0" function="internal">
        <lane id=":J5_0_0" index="0" speed="19.71" length="24.34" shape="92.76,109.23 86.29,112.96 81.07,113.79 75.39,113.19 67.51,112.64"/>
        <lane id=":J5_0_1" index="1" speed="18.95" length="24.34" shape="90.86,106.66 84.88,110.04 80.06,110.68 74.80,110.00 67.53,109.44"/>
        <lane id=":J5_0_2" index="2" speed="18.15" length="24.34" shape="88.96,104.08 83.47,107.12 79.04,107.57 74.21,106.82 67.54,106.24"/>
    </edge>
    <edge id=":J5_3" function="internal">
        <lane id=":J5_3_0" index="0" speed="10.64" length="21.56" shape="88.96,104.08 84.40,106.37 79.62,106.68 74.61,105.00 69.38,101.34"/>
        <lane id=":J5_3_1" index="1" speed="10.16" length="19.60" shape="88.96,104.08 85.53,105.49 81.47,105.10 76.78,102.91 71.48,98.92"/>
        <lane id=":J5_3_2" index="2" speed="9.73" length="17.90" shape="88.96,104.08 86.65,104.61 83.31,103.52 78.95,100.82 73.58,96.51"/>
    </edge>
    <edge id=":J6_0" function="internal">
        <lane id=":J6_0_0" index="0" speed="10.24" length="2.27" shape="32.95,112.52 31.84,112.50 31.07,112.40 30.34,112.14 29.34,111.64"/>
        <lane id=":J6_0_1" index="1" speed="8.04" length="2.27" shape="32.96,109.32 32.29,109.31 31.83,109.25 31.40,109.09 30.80,108.79"/>
        <lane id=":J6_0_2" index="2" speed="30.00" length="2.27" shape="32.97,106.12 32.75,106.12 32.60,106.10 32.45,106.04 32.25,105.94"/>
    </edge>
    <edge id=":J7_0" function="internal">
        <lane id=":J7_0_0" index="0" speed="9.45" length="2.66" shape="1.90,97.64 0.75,97.02 0.01,96.49 -0.58,95.79 -1.28,94.69"/>
        <lane id=":J7_0_1" index="1" speed="7.44" length="2.66" shape="3.36,94.79 2.67,94.42 2.22,94.10 1.87,93.68 1.45,93.02"/>
        <lane id=":J7_0_2" index="2" speed="30.00" length="2.66" shape="4.81,91.94 4.58,91.81 4.43,91.71 4.32,91.57 4.18,91.35"/>
    </edge>
    <edge id=":J8_0" function="internal">
        <lane id=":J8_0_0" index="0" speed="8.65" length="3.50" shape="32.10,68.91 30.85,67.75 30.12,66.79 29.71,65.65 29.43,63.96"/>
        <lane id=":J8_0_1" index="1" speed="6.83" length="3.50" shape="34.20,66.49 33.45,65.80 33.01,65.22 32.77,64.54 32.60,63.52"/>
        <lane id=":J8_0_2" index="2" speed="4.30" length="3.50" shape="36.30,64.08 36.05,63.85 35.91,63.65 35.83,63.43 35.77,63.09"/>
    </edge>

    <edge id="e1" from="J0" to="J1" priority="-1" length="100.00" shape="-16.76,54.14 8.45,33.47 30.79,15.15">
        <lane id="e1_0" index="0" speed="30.00" length="100.00" shape="-21.83,47.95 3.38,27.28 13.92,18.64"/>
        <lane id="e1_1" index="1" speed="30.00" length="100.00" shape="-19.80,50.43 5.41,29.76 15.95,21.12"/>
        <lane id="e1_2" index="2" speed="30.00" length="100.00" shape="-17.77,52.90 7.44,32.23 17.97,23.59"/>
    </edge>
    <edge id="e2" from="J1" to="J2" priority="-1" length="1400.00" shape="30.79,15.15 61.10,15.15 84.50,15.15">
        <lane id="e2_0" index="0" speed="30.00" length="1400.00" shape="34.79,7.15 61.10,7.15 84.50,7.15"/>
        <lane id="e2_1" index="1" speed="30.00" length="1400.00" shape="34.79,10.35 61.10,10.35 84.50,10.35"/>
        <lane id="e2_2" index="2" speed="30.00" length="1400.00" shape="34.79,13.55 61.10,13.55 84.50,13.55"/>
    </edge>
    <edge id="e3" from="J2" to="J3" priority="-1" length="100.00" shape="84.50,15.15 102.89,29.61 118.58,41.94">
        <lane id="e3_0" index="0" speed="30.00" length="100.00" shape="89.44,8.86 107.83,23.32 123.52,35.65"/>
        <lane id="e3_1" index="1" speed="30.00" length="100.00" shape="87.47,11.38 105.86,25.84 121.55,38.17"/>
        <lane id="e3_2" index="2" speed="30.00" length="100.00" shape="85.49,13.89 103.88,28.35 119.57,40.68"/>
    </edge>
    <edge id="e4" from="J3" to="J4" priority="-1" length="100.00" shape="118.58,41.94 118.58,60.73 118.58,73.91 118.58,80.22">
        <lane id="e4_0" index="0" speed="30.00" length="100.00" shape="126.58,41.94 126.58,60.73 126.58,73.91 126.58,80.22"/>
        <lane id="e4_1" index="1" speed="30.00" length="100.00" shape="123.38,41.94 123.38,60.73 123.38,73.91 123.38,80.22"/>
        <lane id="e4_2" index="2" speed="30.00" length="100.00" shape="120.18,41.94 120.18,60.73 120.18,73.91 120.18,80.22"/>
    </edge>
    <edge id="e5" from="J4" to="J5" priority="-1" length="100.00" shape="118.58,80.22 106.04,89.48 85.43,104.70">
        <lane id="e5_0" index="0" speed="30.00" length="100.00" shape="123.33,86.66 110.79,95.92 92.76,109.23"/>
        <lane id="e5_1" index="1" speed="30.00" length="100.00" shape="121.43,84.08 108.89,93.34 90.86,106.66"/>
        <lane id="e5_2" index="2" speed="30.00" length="100.00" shape="119.53,81.51 106.99,90.77 88.96,104.08"/>
    </edge>
    <edge id="e6" from="J5" to="J6" priority="-1" length="1400.00" shape="85.43,104.70 54.88,104.60 32.98,104.52">
        <lane id="e6_0" index="0" speed="30.00" length="1400.00" shape="67.51,112.64 54.85,112.60 32.95,112.52"/>
        <lane id="e6_1" index="1" speed="30.00" length="1400.00" shape="67.53,109.44 54.86,109.40 32.96,109.32"/>
        <lane id="e6_2" index="2" speed="30.00" length="1400.00" shape="67.54,106.24 54.87,106.20 32.97,106.12"/>
    </edge>
    <edge id="e7" from="J6" to="J7" priority="-1" length="100.00" shape="32.98,104.52 16.67,96.19 5.54,90.51">
        <lane id="e7_0" index="0" speed="30.00" length="100.00" shape="29.34,111.64 13.03,103.32 1.90,97.64"/>
        <lane id="e7_1" index="1" speed="30.00" length="100.00" shape="30.80,108.79 14.49,100.47 3.36,94.79"/>
        <lane id="e7_2" index="2" speed="30.00" length="100.00" shape="32.25,105.94 15.94,97.62 4.81,91.94"/>
    </edge>
    <edge id="e8" from="J7" to="J0" priority="-1" length="100.00" shape="5.54,90.51 -8.18,68.13 -16.76,54.14">
        <lane id="e8_0" index="0" speed="30.00" length="100.00" shape="-1.28,94.69 -15.00,72.31 -23.58,58.32"/>
        <lane id="e8_1" index="1" speed="30.00" length="100.00" shape="1.45,93.02 -12.27,70.64 -20.85,56.65"/>
        <lane id="e8_2" index="2" speed="30.00" length="100.00" shape="4.18,91.35 -9.54,68.97 -18.12,54.98"/>
    </edge>
    <edge id="m1" from="J5" to="J8" priority="-1">
        <lane id="m1_0" index="0" speed="30.00" length="49.41" shape="69.38,101.34 32.10,68.91"/>
        <lane id="m1_1" index="1" speed="30.00" length="49.41" shape="71.48,98.92 34.20,66.49"/>
        <lane id="m1_2" index="2" speed="30.00" length="49.41" shape="73.58,96.51 36.30,64.08"/>
    </edge>
    <edge id="m3" from="J8" to="J1" priority="-1">
        <lane id="m3_0" index="0" speed="30.00" length="38.28" shape="29.43,63.96 24.21,26.04"/>
        <lane id="m3_1" index="1" speed="30.00" length="38.28" shape="32.60,63.52 27.38,25.60"/>
        <lane id="m3_2" index="2" speed="30.00" length="38.28" shape="35.77,63.09 30.55,25.16"/>
    </edge>

    <junction id="J0" type="priority" x="-16.76" y="54.14" incLanes="e8_0 e8_1 e8_2" intLanes=":J0_0_0 :J0_0_1 :J0_0_2" shape="-24.94,59.16 -16.76,54.14 -22.85,46.72 -24.70,48.54 -25.96,50.46 -26.61,52.48 -26.66,54.61 -26.10,56.83">
        <request index="0" response="000" foes="000" cont="0"/>
        <request index="1" response="000" foes="000" cont="0"/>
        <request index="2" response="000" foes="000" cont="0"/>
    </junction>
    <junction id="J1" type="priority" x="30.79" y="15.15" incLanes="m3_0 m3_1 m3_2 e1_0 e1_1 e1_2" intLanes=":J1_6_0 :J1_7_0 :J1_8_0 :J1_3_0 :J1_3_1 :J1_3_2" shape="22.63,26.25 32.14,24.95 31.84,21.95 31.83,19.50 32.13,17.60 32.72,16.24 33.61,15.42 34.79,15.15 34.79,5.55 29.52,5.88 25.72,6.87 22.79,8.52 20.09,10.82 17.00,13.79 12.90,17.40 18.99,24.83 20.77,23.86 21.45,23.92 21.98,24.33 22.37,25.11">
        <request index="0" response="111000" foes="111000" cont="1"/>
        <request index="1" response="111000" foes="111000" cont="1"/>
        <request index="2" response="111000" foes="111000" cont="1"/>
        <request index="3" response="000000" foes="000111" cont="0"/>
        <request index="4" response="000000" foes="000111" cont="0"/>
        <request index="5" response="000000" foes="000111" cont="0"/>
    </junction>
    <junction id="J11" type="dead_end" x="139.38" y="28.91" incLanes="" intLanes="" shape="139.38,28.91"/>
    <junction id="J2" type="priority" x="84.50" y="15.15" incLanes="e2_0 e2_1 e2_2" intLanes=":J2_0_0 :J2_0_1 :J2_0_2" shape="84.50,15.15 90.43,7.60 88.50,6.21 87.72,5.85 86.89,5.65 85.86,5.57 84.50,5.55">
        <request index="0" response="000" foes="000" cont="0"/>
        <request index="1" response="000" foes="000" cont="0"/>
        <request index="2" response="000" foes="000" cont="0"/>
    </junction>
    <junction id="J3" type="priority" x="118.58" y="41.94" incLanes="e3_0 e3_1 e3_2" intLanes=":J3_0_0 :J3_0_1 :J3_0_2" shape="118.58,41.94 128.18,41.94 127.77,39.03 127.26,37.72 126.55,36.51 125.63,35.40 124.51,34.39">
        <request index="0" response="000" foes="000" cont="0"/>
        <request index="1" response="000" foes="000" cont="0"/>
        <request index="2" response="000" foes="000" cont="0"/>
    </junction>
    <junction id="J4" type="priority" x="118.58" y="80.22" incLanes="e4_0 e4_1 e4_2" intLanes=":J4_0_0 :J4_0_1 :J4_0_2" shape="128.18,80.22 118.58,80.22 124.28,87.94 126.45,85.81 127.21,84.57 127.75,83.23 128.07,81.78">
        <request index="0" response="000" foes="000" cont="0"/>
        <request index="1" response="000" foes="000" cont="0"/>
        <request index="2" response="000" foes="000" cont="0"/>
    </junction>
    <junction id="J5" type="priority" x="85.43" y="104.70" incLanes="e5_0 e5_1 e5_2" intLanes=":J5_0_0 :J5_0_1 :J5_0_2 :J5_3_0 :J5_3_1 :J5_3_2" shape="93.71,110.52 88.01,102.79 85.38,102.81 83.38,101.87 80.92,100.31 78.00,98.12 74.63,95.30 68.33,102.55 69.32,103.71 69.34,104.12 69.05,104.41 68.45,104.59 67.54,104.64 67.51,114.24 73.31,114.53 77.82,115.04 81.58,115.34 85.13,114.99 89.00,113.53">
        <request index="0" response="000000" foes="000000" cont="0"/>
        <request index="1" response="000000" foes="000000" cont="0"/>
        <request index="2" response="000000" foes="000000" cont="0"/>
        <request index="3" response="000000" foes="000000" cont="0"/>
        <request index="4" response="000000" foes="000000" cont="0"/>
        <request index="5" response="000000" foes="000000" cont="0"/>
    </junction>
    <junction id="J6" type="priority" x="32.98" y="104.52" incLanes="e6_0 e6_1 e6_2" intLanes=":J6_0_0 :J6_0_1 :J6_0_2" shape="32.94,114.12 32.98,104.52 28.61,113.07 30.12,113.79 30.69,113.97 31.27,114.07 31.99,114.11">
        <request index="0" response="000" foes="000" cont="0"/>
        <request index="1" response="000" foes="000" cont="0"/>
        <request index="2" response="000" foes="000" cont="0"/>
    </junction>
    <junction id="J7" type="priority" x="5.54" y="90.51" incLanes="e7_0 e7_1 e7_2" intLanes=":J7_0_0 :J7_0_1 :J7_0_2" shape="1.18,99.06 5.54,90.51 -2.64,95.53 -1.56,97.17 -1.09,97.68 -0.54,98.11 0.18,98.54">
        <request index="0" response="000" foes="000" cont="0"/>
        <request index="1" response="000" foes="000" cont="0"/>
        <request index="2" response="000" foes="000" cont="0"/>
    </junction>
    <junction id="J8" type="priority" x="37.36" y="62.87" incLanes="m1_0 m1_1 m1_2" intLanes=":J8_0_0 :J8_0_1 :J8_0_2" shape="31.05,70.11 37.36,62.87 27.84,64.18 28.32,66.71 28.67,67.57 29.19,68.33 29.96,69.14">
        <request index="0" response="000" foes="000" cont="0"/>
        <request index="1" response="000" foes="000" cont="0"/>
        <request index="2" response="000" foes="000" cont="0"/>
    </junction>

    <junction id=":J1_6_0" type="internal" x="24.02" y="20.91" incLanes=":J1_0_0 e1_0 e1_1 e1_2" intLanes=":J1_3_0 :J1_3_1 :J1_3_2"/>
    <junction id=":J1_7_0" type="internal" x="27.38" y="17.57" incLanes=":J1_0_1 e1_0 e1_1 e1_2" intLanes=":J1_3_0 :J1_3_1 :J1_3_2"/>
    <junction id=":J1_8_0" type="internal" x="31.32" y="15.73" incLanes=":J1_0_2 e1_0 e1_1 e1_2" intLanes=":J1_3_0 :J1_3_1 :J1_3_2"/>

    <connection from="e1" to="e2" fromLane="0" toLane="0" via=":J1_3_0" dir="s" state="M"/>
    <connection from="e1" to="e2" fromLane="1" toLane="1" via=":J1_3_1" dir="s" state="M"/>
    <connection from="e1" to="e2" fromLane="2" toLane="2" via=":J1_3_2" dir="s" state="M"/>
    <connection from="e2" to="e3" fromLane="0" toLane="0" via=":J2_0_0" dir="s" state="M"/>
    <connection from="e2" to="e3" fromLane="1" toLane="1" via=":J2_0_1" dir="s" state="M"/>
    <connection from="e2" to="e3" fromLane="2" toLane="2" via=":J2_0_2" dir="s" state="M"/>
    <connection from="e3" to="e4" fromLane="0" toLane="0" via=":J3_0_0" dir="l" state="M"/>
    <connection from="e3" to="e4" fromLane="1" toLane="1" via=":J3_0_1" dir="l" state="M"/>
    <connection from="e3" to="e4" fromLane="2" toLane="2" via=":J3_0_2" dir="l" state="M"/>
    <connection from="e4" to="e5" fromLane="0" toLane="0" via=":J4_0_0" dir="l" state="M"/>
    <connection from="e4" to="e5" fromLane="1" toLane="1" via=":J4_0_1" dir="l" state="M"/>
    <connection from="e4" to="e5" fromLane="2" toLane="2" via=":J4_0_2" dir="l" state="M"/>
    <connection from="e5" to="e6" fromLane="0" toLane="0" via=":J5_0_0" dir="s" state="M"/>
    <connection from="e5" to="e6" fromLane="1" toLane="1" via=":J5_0_1" dir="s" state="M"/>
    <connection from="e5" to="e6" fromLane="2" toLane="2" via=":J5_0_2" dir="s" state="M"/>
    <connection from="e5" to="m1" fromLane="2" toLane="0" via=":J5_3_0" dir="l" state="M"/>
    <connection from="e5" to="m1" fromLane="2" toLane="1" via=":J5_3_1" dir="l" state="M"/>
    <connection from="e5" to="m1" fromLane="2" toLane="2" via=":J5_3_2" dir="l" state="M"/>
    <connection from="e6" to="e7" fromLane="0" toLane="0" via=":J6_0_0" dir="s" state="M"/>
    <connection from="e6" to="e7" fromLane="1" toLane="1" via=":J6_0_1" dir="s" state="M"/>
    <connection from="e6" to="e7" fromLane="2" toLane="2" via=":J6_0_2" dir="s" state="M"/>
    <connection from="e7" to="e8" fromLane="0" toLane="0" via=":J7_0_0" dir="s" state="M"/>
    <connection from="e7" to="e8" fromLane="1" toLane="1" via=":J7_0_1" dir="s" state="M"/>
    <connection from="e7" to="e8" fromLane="2" toLane="2" via=":J7_0_2" dir="s" state="M"/>
    <connection from="e8" to="e1" fromLane="0" toLane="0" via=":J0_0_0" dir="l" state="M"/>
    <connection from="e8" to="e1" fromLane="1" toLane="1" via=":J0_0_1" dir="l" state="M"/>
    <connection from="e8" to="e1" fromLane="2" toLane="2" via=":J0_0_2" dir="l" state="M"/>
    <connection from="m1" to="m3" fromLane="0" toLane="0" via=":J8_0_0" dir="s" state="M"/>
    <connection from="m1" to="m3" fromLane="1" toLane="1" via=":J8_0_1" dir="s" state="M"/>
    <connection from="m1" to="m3" fromLane="2" toLane="2" via=":J8_0_2" dir="s" state="M"/>
    <connection from="m3" to="e2" fromLane="0" toLane="0" via=":J1_0_0" dir="l" state="m"/>
    <connection from="m3" to="e2" fromLane="1" toLane="1" via=":J1_0_1" dir="l" state="m"/>
    <connection from="m3" to="e2" fromLane="2" toLane="2" via=":J1_0_2" dir="l" state="m"/>

    <connection from=":J0_0" to="e1" fromLane="0" toLane="0" dir="l" state="M"/>
    <connection from=":J0_0" to="e1" fromLane="1" toLane="1" dir="l" state="M"/>
    <connection from=":J0_0" to="e1" fromLane="2" toLane="2" dir="l" state="M"/>
    <connection from=":J1_0" to="e2" fromLane="0" toLane="0" via=":J1_6_0" dir="l" state="m"/>
    <connection from=":J1_6" to="e2" fromLane="0" toLane="0" dir="l" state="M"/>
    <connection from=":J1_0" to="e2" fromLane="1" toLane="1" via=":J1_7_0" dir="l" state="m"/>
    <connection from=":J1_7" to="e2" fromLane="0" toLane="1" dir="l" state="M"/>
    <connection from=":J1_0" to="e2" fromLane="2" toLane="2" via=":J1_8_0" dir="l" state="m"/>
    <connection from=":J1_8" to="e2" fromLane="0" toLane="2" dir="l" state="M"/>
    <connection from=":J1_3" to="e2" fromLane="0" toLane="0" dir="s" state="M"/>
    <connection from=":J1_3" to="e2" fromLane="1" toLane="1" dir="s" state="M"/>
    <connection from=":J1_3" to="e2" fromLane="2" toLane="2" dir="s" state="M"/>
    <connection from=":J2_0" to="e3" fromLane="0" toLane="0" dir="s" state="M"/>
    <connection from=":J2_0" to="e3" fromLane="1" toLane="1" dir="s" state="M"/>
    <connection from=":J2_0" to="e3" fromLane="2" toLane="2" dir="s" state="M"/>
    <connection from=":J3_0" to="e4" fromLane="0" toLane="0" dir="l" state="M"/>
    <connection from=":J3_0" to="e4" fromLane="1" toLane="1" dir="l" state="M"/>
    <connection from=":J3_0" to="e4" fromLane="2" toLane="2" dir="l" state="M"/>
    <connection from=":J4_0" to="e5" fromLane="0" toLane="0" dir="l" state="M"/>
    <connection from=":J4_0" to="e5" fromLane="1" toLane="1" dir="l" state="M"/>
    <connection from=":J4_0" to="e5" fromLane="2" toLane="2" dir="l" state="M"/>
    <connection from=":J5_0" to="e6" fromLane="0" toLane="0" dir="s" state="M"/>
    <connection from=":J5_0" to="e6" fromLane="1" toLane="1" dir="s" state="M"/>
    <connection from=":J5_0" to="e6" fromLane="2" toLane="2" dir="s" state="M"/>
    <connection from=":J5_3" to="m1" fromLane="0" toLane="0" dir="l" state="M"/>
    <connection from=":J5_3" to="m1" fromLane="1" toLane="1" dir="l" state="M"/>
    <connection from=":J5_3" to="m1" fromLane="2" toLane="2" dir="l" state="M"/>
    <connection from=":J6_0" to="e7" fromLane="0" toLane="0" dir="s" state="M"/>
    <connection from=":J6_0" to="e7" fromLane="1" toLane="1" dir="s" state="M"/>
    <connection from=":J6_0" to="e7" fromLane="2" toLane="2" dir="s" state="M"/>
    <connection from=":J7_0" to="e8" fromLane="0" toLane="0" dir="s" state="M"/>
    <connection from=":J7_0" to="e8" fromLane="1" toLane="1" dir="s" state="M"/>
    <connection from=":J7_0" to="e8" fromLane="2" toLane="2" dir="s" state="M"/>
    <connection from=":J8_0" to="m3" fromLane="0" toLane="0" dir="s" state="M"/>
    <connection from=":J8_0" to="m3" fromLane="1" toLane="1" dir="s" state="M"/>
    <connection from=":J8_0" to="m3" fromLane="2" toLane="2" dir="s" state="M"/>

</net>
