<?xml version="1.0" encoding="UTF-8"?>



<routes xmlns:xsi="http://www.w3.org/2001/XMLSchema-instance" xsi:noNamespaceSchemaLocation="http://sumo.dlr.de/xsd/routes_file.xsd">
    
        <vType id="car" 
            vClass="passenger" length="5" maxSpeed="30" carFollowModel="Krauss" color="255,204,0" accel="2.6" decel="4.5"
            sigma="1.0"/>

    <!-- Routes -->
    <route id="route_0" edges="e1 e2 e3 e4 e5 e6 e7 e8 e1 e2 e3 e4 e5 e6 e7 e8 e1 e2 e3 e4 e5 e6 e7 e8 e1 e2 e3 e4 e5 e6 e7 e8 e1"/>
    <route id="route_1" edges="e1 e2 e3 e4 e5 e6 e7 e8 e1 e2 e3 e4 e5 e6 e7 e8 e1 e2 e3 e4 e5 e6 e7 e8 e1 e2 e3 e4 e5 e6 e7 e8 e1"/>
    <route id="route_2" edges="e1 e2 e3 e4 e5 m1 m3 e2 e3 e4 e5 m1 m3 e2 e3 e4 e5 e6 e7 e8 e1 e2 e3 e4 e5 m1 m3 e2 e3 e4 e5 m1 m3 e2 e3 e4 e5 e6 e7 e8"/>
   
   
    <flow id="n_1" route="route_1" type="car" begin="0" end="1500" number="70" />
    <flow id="n_2" route="route_2" type="car" begin="0" end="1500" number="70"/>



     <!-- <vehicle id="0" type="car" route="route_0" depart="10000"/>
     <vehicle id="1" type="car" route="route_0" depart="10000"/>
     <vehicle id="2" type="car" route="route_0" depart="10000"/>
     <vehicle id="3" type="car" route="route_1" depart="10000"/>
     <vehicle id="4" type="car" route="route_0" depart="10000"/>
     <vehicle id="5" type="car" route="route_0" depart="10000"/>

     <vehicle id="6" type="car" route="route_1" depart="10000"/>
     <vehicle id="7" type="car" route="route_0" depart="10000"/>
     <vehicle id="8" type="car" route="route_0" depart="10000"/>
     <vehicle id="9" type="car" route="route_1" depart="10000"/>
     <vehicle id="10" type="car" route="route_0" depart="10000"/>

     <vehicle id="11" type="car" route="route_1" depart="10000"/>
     <vehicle id="12" type="car" route="route_0" depart="10000"/>
     <vehicle id="13" type="car" route="route_1" depart="10000"/>
     <vehicle id="14" type="car" route="route_0" depart="10000"/>
     <vehicle id="15" type="car" route="route_0" depart="10000"/>

     <vehicle id="16" type="car" route="route_0" depart="10000"/>
     <vehicle id="17" type="car" route="route_1" depart="10000"/>
     <vehicle id="18" type="car" route="route_0" depart="10000"/>
     <vehicle id="19" type="car" route="route_0" depart="10000"/>
     <vehicle id="20" type="car" route="route_0" depart="10000"/>

     <vehicle id="21" type="car" route="route_0" depart="10000"/>
     <vehicle id="22" type="car" route="route_0" depart="10000"/>
     <vehicle id="23" type="car" route="route_0" depart="10000"/>
     <vehicle id="24" type="car" route="route_1" depart="10000"/>
     <vehicle id="25" type="car" route="route_0" depart="10000"/>

     <vehicle id="26" type="car" route="route_0" depart="10000"/>
     <vehicle id="27" type="car" route="route_0" depart="10000"/>
     <vehicle id="28" type="car" route="route_0" depart="10000"/>
     <vehicle id="29" type="car" route="route_1" depart="10000"/>
     <vehicle id="30" type="car" route="route_0" depart="10000"/>

     <vehicle id="31" type="car" route="route_1" depart="10000"/>
     <vehicle id="32" type="car" route="route_0" depart="10000"/>
     <vehicle id="33" type="car" route="route_0" depart="10000"/>
     <vehicle id="34" type="car" route="route_1" depart="10000"/>
     <vehicle id="35" type="car" route="route_0" depart="10000"/>

     <vehicle id="36" type="car" route="route_1" depart="10000"/>
     <vehicle id="37" type="car" route="route_0" depart="10000"/>
     <vehicle id="38" type="car" route="route_0" depart="10000"/>
     <vehicle id="39" type="car" route="route_1" depart="10000"/>
     <vehicle id="40" type="car" route="route_0" depart="10000"/>

     <vehicle id="41" type="car" route="route_1" depart="10000"/>
     <vehicle id="42" type="car" route="route_0" depart="10000"/>
     <vehicle id="43" type="car" route="route_0" depart="10000"/>
     <vehicle id="44" type="car" route="route_1" depart="10000"/>
     <vehicle id="45" type="car" route="route_0" depart="10000"/>

     <vehicle id="46" type="car" route="route_1" depart="10000"/>
     <vehicle id="47" type="car" route="route_0" depart="10000"/>
     <vehicle id="48" type="car" route="route_0" depart="10000"/>
     <vehicle id="49" type="car" route="route_1" depart="10000"/>
     <vehicle id="50" type="car" route="route_0" depart="10000"/>

     <vehicle id="51" type="car" route="route_1" depart="10000"/>
     <vehicle id="52" type="car" route="route_0" depart="10000"/>
     <vehicle id="53" type="car" route="route_0" depart="10000"/>
     <vehicle id="54" type="car" route="route_1" depart="10000"/>
     <vehicle id="55" type="car" route="route_0" depart="10000"/>

     <vehicle id="56" type="car" route="route_1" depart="10000"/>
     <vehicle id="57" type="car" route="route_0" depart="10000"/>
     <vehicle id="58" type="car" route="route_0" depart="10000"/>
     <vehicle id="59" type="car" route="route_1" depart="10000"/>
     <vehicle id="60" type="car" route="route_0" depart="10000"/>

     <vehicle id="61" type="car" route="route_1" depart="10000"/>
     <vehicle id="62" type="car" route="route_0" depart="10000"/>
     <vehicle id="63" type="car" route="route_0" depart="10000"/>
     <vehicle id="64" type="car" route="route_1" depart="10000"/>
     <vehicle id="65" type="car" route="route_0" depart="10000"/>

     <vehicle id="66" type="car" route="route_1" depart="10000"/>
     <vehicle id="67" type="car" route="route_0" depart="10000"/>
     <vehicle id="68" type="car" route="route_0" depart="10000"/>
     <vehicle id="69" type="car" route="route_1" depart="10000"/>
     <vehicle id="70" type="car" route="route_0" depart="10000"/>

     <vehicle id="71" type="car" route="route_1" depart="10000"/>
     <vehicle id="72" type="car" route="route_0" depart="10000"/>
     <vehicle id="73" type="car" route="route_0" depart="10000"/>
     <vehicle id="74" type="car" route="route_1" depart="10000"/>
     <vehicle id="75" type="car" route="route_0" depart="10000"/>

     <vehicle id="76" type="car" route="route_1" depart="10000"/>
     <vehicle id="77" type="car" route="route_0" depart="10000"/>
     <vehicle id="78" type="car" route="route_0" depart="10000"/>
     <vehicle id="79" type="car" route="route_1" depart="10000"/>
     <vehicle id="80" type="car" route="route_0" depart="10000"/>

     <vehicle id="81" type="car" route="route_1" depart="10000"/>
     <vehicle id="82" type="car" route="route_0" depart="10000"/>
     <vehicle id="83" type="car" route="route_0" depart="10000"/>
     <vehicle id="84" type="car" route="route_1" depart="10000"/>
     <vehicle id="85" type="car" route="route_0" depart="10000"/>

     <vehicle id="86" type="car" route="route_1" depart="10000"/>
     <vehicle id="87" type="car" route="route_0" depart="10000"/>
     <vehicle id="88" type="car" route="route_0" depart="10000"/>
     <vehicle id="89" type="car" route="route_1" depart="10000"/>
     <vehicle id="90" type="car" route="route_0" depart="10000"/>

     <vehicle id="91" type="car" route="route_1" depart="10000"/>
     <vehicle id="92" type="car" route="route_0" depart="10000"/>
     <vehicle id="93" type="car" route="route_0" depart="10000"/>
     <vehicle id="94" type="car" route="route_1" depart="10000"/>
     <vehicle id="95" type="car" route="route_0" depart="10000"/>

     <vehicle id="96" type="car" route="route_1" depart="10000"/>
     <vehicle id="97" type="car" route="route_0" depart="10000"/>
     <vehicle id="98" type="car" route="route_0" depart="10000"/>
     <vehicle id="99" type="car" route="route_1" depart="10000"/>
     <vehicle id="100" type="car" route="route_0" depart="10000"/> -->
</routes>

