<?xml version="1.0" encoding="UTF-8"?>

<!-- generated on 2023-10-31 08:05:38 by Eclipse SUMO netedit Version 1.17.0
<configuration xmlns:xsi="http://www.w3.org/2001/XMLSchema-instance" xsi:noNamespaceSchemaLocation="http://sumo.dlr.de/xsd/netconvertConfiguration.xsd">

    <input>
        <sumocfg-file value="C:\Sumo\Thesis2\Maps\SwarmOptimizationinPSO\demo_network.sumocfg"/>
        <sumo-net-file value="C:\Sumo\Thesis2\Maps\SwarmOptimizationinPSO\demo_network.net.xml"/>
    </input>

    <output>
        <output-file value="C:\Sumo\Thesis2\Maps\SwarmOptimizationinPSO\demo_network.net.xml"/>
    </output>

    <processing>
        <geometry.min-radius.fix.railways value="false"/>
        <geometry.max-grade.fix value="false"/>
        <offset.disable-normalization value="true"/>
        <lefthand value="0"/>
    </processing>

    <junctions>
        <no-turnarounds value="true"/>
        <junctions.corner-detail value="5"/>
        <junctions.limit-turn-speed value="5.50"/>
        <rectangular-lane-cut value="0"/>
    </junctions>

    <pedestrian>
        <walkingareas value="0"/>
    </pedestrian>

</configuration>
-->

<net version="1.16" junctionCornerDetail="5" limitTurnSpeed="5.50" xmlns:xsi="http://www.w3.org/2001/XMLSchema-instance" xsi:noNamespaceSchemaLocation="http://sumo.dlr.de/xsd/net_file.xsd">

    <location netOffset="0.00,0.00" convBoundary="-40.06,15.15,139.38,104.70" origBoundary="-10000000000.00,-10000000000.00,10000000000.00,10000000000.00" projParameter="!"/>

    <edge id=":J0_0" function="internal">
        <lane id=":J0_0_0" index="0" speed="7.00" length="9.51" shape="-20.07,57.93 -21.09,55.58 -21.20,53.39 -20.38,51.36 -18.64,49.48"/>
        <lane id=":J0_0_1" index="1" speed="5.21" length="4.84" shape="-17.34,56.26 -17.86,55.06 -17.92,53.95 -17.50,52.91 -16.61,51.95"/>
    </edge>
    <edge id=":J0_2" function="internal">
        <lane id=":J0_2_0" index="0" speed="10.50" length="8.79" shape="-25.75,52.61 -23.42,52.45 -21.86,51.95 -20.47,51.00 -18.64,49.48"/>
        <lane id=":J0_2_1" index="1" speed="11.41" length="8.79" shape="-25.75,52.61 -22.89,52.90 -20.79,53.35 -18.89,53.27 -16.61,51.95"/>
    </edge>
    <edge id=":J1_0" function="internal">
        <lane id=":J1_0_0" index="0" speed="7.61" length="17.47" shape="29.03,22.07 27.06,16.94 27.36,13.28 29.93,11.08 34.79,10.35"/>
        <lane id=":J1_0_1" index="1" speed="5.95" length="10.12" shape="31.86,20.57 30.64,17.50 30.73,15.30 32.11,13.99 34.79,13.55"/>
    </edge>
    <edge id=":J1_2" function="internal">
        <lane id=":J1_2_0" index="0" speed="15.27" length="16.58" shape="19.61,18.11 23.56,14.62 26.47,12.20 29.75,10.80 34.79,10.35"/>
        <lane id=":J1_2_1" index="1" speed="14.31" length="16.58" shape="21.63,20.59 25.07,17.49 27.58,15.30 30.40,13.98 34.79,13.55"/>
    </edge>
    <edge id=":J2_0" function="internal">
        <lane id=":J2_0_0" index="0" speed="6.96" length="2.16" shape="84.50,10.35 85.45,10.37 86.11,10.50 86.70,10.81 87.47,11.38"/>
        <lane id=":J2_0_1" index="1" speed="4.37" length="2.16" shape="84.50,13.55 84.82,13.56 85.04,13.60 85.23,13.70 85.49,13.89"/>
    </edge>
    <edge id=":J3_0" function="internal">
        <lane id=":J3_0_0" index="0" speed="7.32" length="8.61" shape="118.47,35.75 120.14,36.62 122.03,36.80 124.16,36.29 126.51,35.09"/>
    </edge>
    <edge id=":J3_1" function="internal">
        <lane id=":J3_1_0" index="0" speed="9.76" length="10.61" shape="118.47,35.75 120.62,37.76 122.15,39.93 123.07,42.26 123.38,44.75"/>
        <lane id=":J3_1_1" index="1" speed="8.39" length="7.72" shape="116.50,38.27 118.11,39.76 119.26,41.34 119.95,43.00 120.18,44.75"/>
    </edge>
    <edge id=":J4_0" function="internal">
        <lane id=":J4_0_0" index="0" speed="6.41" length="4.49" shape="123.38,80.22 123.26,81.37 122.89,82.40 122.28,83.30 121.43,84.08"/>
        <lane id=":J4_0_1" index="1" speed="4.08" length="1.50" shape="120.18,80.22 120.14,80.60 120.02,80.95 119.81,81.25 119.53,81.51"/>
    </edge>
    <edge id=":J5_0" function="internal">
        <lane id=":J5_0_0" index="0" speed="7.05" length="2.07" shape="88.28,108.56 87.53,109.09 86.96,109.37 86.33,109.48 85.41,109.50"/>
        <lane id=":J5_0_1" index="1" speed="4.42" length="2.07" shape="86.38,105.99 86.13,106.16 85.94,106.26 85.73,106.29 85.42,106.30"/>
    </edge>
    <edge id=":J6_0" function="internal">
        <lane id=":J6_0_0" index="0" speed="8.04" length="1.51" shape="32.96,109.32 32.29,109.31 31.83,109.25 31.40,109.09 30.80,108.79"/>
        <lane id=":J6_0_1" index="1" speed="24.00" length="1.51" shape="32.97,106.12 32.75,106.12 32.60,106.10 32.45,106.04 32.25,105.94"/>
    </edge>
    <edge id=":J7_0" function="internal">
        <lane id=":J7_0_0" index="0" speed="18.15" length="16.10" shape="6.92,96.60 2.71,94.06 0.32,91.61 -1.50,88.53 -4.00,84.13"/>
        <lane id=":J7_0_1" index="1" speed="17.20" length="16.10" shape="8.38,93.75 4.62,91.46 2.53,89.22 0.94,86.42 -1.27,82.46"/>
    </edge>
    <edge id=":J7_2" function="internal">
        <lane id=":J7_2_0" index="0" speed="6.54" length="13.56" shape="8.38,93.75 4.57,91.27 3.07,88.89 3.86,86.61 6.95,84.42"/>
        <lane id=":J7_2_1" index="1" speed="5.57" length="9.39" shape="8.38,93.75 5.99,92.13 5.19,90.51 6.00,88.89 8.39,87.28"/>
    </edge>
    <edge id=":J8_0" function="internal">
        <lane id=":J8_0_0" index="0" speed="3.90" length="2.62" shape="49.06,63.23 49.65,62.81 49.96,62.31 50.00,61.72 49.75,61.05"/>
        <lane id=":J8_0_1" index="1" speed="6.07" length="7.87" shape="50.50,66.08 52.27,64.85 53.21,63.34 53.31,61.58 52.58,59.54"/>
    </edge>

    <edge id="e0" from="J9" to="J0" priority="-1" length="100.00">
        <lane id="e0_0" index="0" speed="30.00" length="100.00" shape="-40.07,52.71 -25.75,52.61"/>
    </edge>
    <edge id="e1" from="J0" to="J1" priority="-1" length="100.00" shape="-16.76,54.14 8.45,33.47 30.79,15.15">
        <lane id="e1_0" index="0" speed="24.00" length="100.00" shape="-18.64,49.48 5.41,29.76 19.61,18.11"/>
        <lane id="e1_1" index="1" speed="24.00" length="100.00" shape="-16.61,51.95 7.44,32.23 21.63,20.59"/>
    </edge>
    <edge id="e10" from="J8" to="J1" priority="-1" length="100.00" shape="57.06,64.57 47.10,45.83 30.79,15.15">
        <lane id="e10_0" index="0" speed="15.00" length="100.00" shape="49.75,61.05 42.86,48.08 29.03,22.07"/>
        <lane id="e10_1" index="1" speed="15.00" length="100.00" shape="52.58,59.54 45.69,46.58 31.86,20.57"/>
    </edge>
    <edge id="e11" from="J3" to="J11" priority="-1" shape="118.58,41.94 129.46,35.13 139.38,28.91">
        <lane id="e11_0" index="0" speed="13.89" length="14.18" shape="126.51,35.09 128.61,33.77 138.53,27.55"/>
    </edge>
    <edge id="e2" from="J1" to="J2" priority="-1" length="1400.00" shape="30.79,15.15 61.10,15.15 84.50,15.15">
        <lane id="e2_0" index="0" speed="24.00" length="1400.00" shape="34.79,10.35 61.10,10.35 84.50,10.35"/>
        <lane id="e2_1" index="1" speed="24.00" length="1400.00" shape="34.79,13.55 61.10,13.55 84.50,13.55"/>
    </edge>
    <edge id="e3" from="J2" to="J3" priority="-1" length="100.00" shape="84.50,15.15 102.89,29.61 118.58,41.94">
        <lane id="e3_0" index="0" speed="24.00" length="100.00" shape="87.47,11.38 105.86,25.84 118.47,35.75"/>
        <lane id="e3_1" index="1" speed="24.00" length="100.00" shape="85.49,13.89 103.88,28.35 116.50,38.27"/>
    </edge>
    <edge id="e4" from="J3" to="J4" priority="-1" length="100.00" shape="118.58,41.94 118.58,60.73 118.58,73.91 118.58,80.22">
        <lane id="e4_0" index="0" speed="24.00" length="100.00" shape="123.38,44.75 123.38,60.73 123.38,73.91 123.38,80.22"/>
        <lane id="e4_1" index="1" speed="24.00" length="100.00" shape="120.18,44.75 120.18,60.73 120.18,73.91 120.18,80.22"/>
    </edge>
    <edge id="e5" from="J4" to="J5" priority="-1" length="100.00" shape="118.58,80.22 106.04,89.48 85.43,104.70">
        <lane id="e5_0" index="0" speed="24.00" length="100.00" shape="121.43,84.08 108.89,93.34 88.28,108.56"/>
        <lane id="e5_1" index="1" speed="24.00" length="100.00" shape="119.53,81.51 106.99,90.77 86.38,105.99"/>
    </edge>
    <edge id="e6" from="J5" to="J6" priority="-1" length="1400.00" shape="85.43,104.70 54.88,104.60 32.98,104.52">
        <lane id="e6_0" index="0" speed="24.00" length="1400.00" shape="85.41,109.50 54.86,109.40 32.96,109.32"/>
        <lane id="e6_1" index="1" speed="24.00" length="1400.00" shape="85.42,106.30 54.87,106.20 32.97,106.12"/>
    </edge>
    <edge id="e7" from="J6" to="J7" priority="-1" length="100.00" shape="32.98,104.52 16.67,96.19 5.54,90.51">
        <lane id="e7_0" index="0" speed="24.00" length="100.00" shape="30.80,108.79 14.49,100.47 6.92,96.60"/>
        <lane id="e7_1" index="1" speed="24.00" length="100.00" shape="32.25,105.94 15.94,97.62 8.38,93.75"/>
    </edge>
    <edge id="e8" from="J7" to="J0" priority="-1" length="100.00" shape="5.54,90.51 -8.18,68.13 -16.76,54.14">
        <lane id="e8_0" index="0" speed="30.00" length="100.00" shape="-4.00,84.13 -12.27,70.64 -20.07,57.93"/>
        <lane id="e8_1" index="1" speed="30.00" length="100.00" shape="-1.27,82.46 -9.54,68.97 -17.34,56.26"/>
    </edge>
    <edge id="e9" from="J7" to="J8" priority="-1" length="100.00" shape="5.54,90.51 27.11,79.65 57.06,64.57">
        <lane id="e9_0" index="0" speed="15.00" length="100.00" shape="6.95,84.42 24.95,75.36 49.06,63.23"/>
        <lane id="e9_1" index="1" speed="15.00" length="100.00" shape="8.39,87.28 26.39,78.22 50.50,66.08"/>
    </edge>

    <junction id="J0" type="priority" x="-16.76" y="54.14" incLanes="e8_0 e8_1 e0_0" intLanes=":J0_0_0 :J0_0_1 :J0_2_0 :J0_2_1" shape="-21.43,58.76 -15.98,55.42 -16.28,54.60 -16.27,54.22 -16.16,53.86 -15.93,53.52 -15.60,53.19 -19.66,48.24 -21.65,49.90 -22.42,50.41 -23.26,50.75 -24.32,50.94 -25.76,51.01 -25.73,54.21 -24.59,54.71 -23.91,55.34 -23.15,56.23 -22.33,57.37">
        <request index="0" response="0000" foes="1100" cont="0"/>
        <request index="1" response="0000" foes="1100" cont="0"/>
        <request index="2" response="0011" foes="0011" cont="0"/>
        <request index="3" response="0011" foes="0011" cont="0"/>
    </junction>
    <junction id="J1" type="priority" x="30.79" y="15.15" incLanes="e10_0 e10_1 e1_0 e1_1" intLanes=":J1_0_0 :J1_0_1 :J1_2_0 :J1_2_1" shape="27.62,22.82 33.27,19.82 32.34,17.22 32.41,16.32 32.84,15.67 33.64,15.28 34.79,15.15 34.79,8.75 30.93,8.95 28.12,9.58 25.92,10.66 23.89,12.22 21.59,14.28 18.59,16.88 22.65,21.83 24.58,20.81 25.44,20.81 26.23,21.14 26.96,21.81">
        <request index="0" response="1100" foes="1100" cont="0"/>
        <request index="1" response="1100" foes="1100" cont="0"/>
        <request index="2" response="0000" foes="0011" cont="0"/>
        <request index="3" response="0000" foes="0011" cont="0"/>
    </junction>
    <junction id="J11" type="dead_end" x="139.38" y="28.91" incLanes="e11_0" intLanes="" shape="137.68,26.20 139.38,28.91"/>
    <junction id="J2" type="priority" x="84.50" y="15.15" incLanes="e2_0 e2_1" intLanes=":J2_0_0 :J2_0_1" shape="84.50,15.15 88.46,10.12 87.16,9.19 86.65,8.95 86.09,8.82 85.41,8.76 84.50,8.75">
        <request index="0" response="00" foes="00" cont="0"/>
        <request index="1" response="00" foes="00" cont="0"/>
    </junction>
    <junction id="J3" type="priority" x="118.58" y="41.94" incLanes="e3_0 e3_1" intLanes=":J3_0_0 :J3_1_0 :J3_1_1" shape="118.58,44.75 124.98,44.75 125.05,42.63 125.24,40.80 125.58,39.27 126.04,38.03 126.63,37.09 127.36,36.44 125.67,33.73 123.20,34.93 122.12,35.17 121.13,35.18 120.25,34.95 119.46,34.49 115.51,39.52 117.21,41.18 117.81,42.04 118.24,42.92 118.49,43.83">
        <request index="0" response="000" foes="000" cont="0"/>
        <request index="1" response="000" foes="000" cont="0"/>
        <request index="2" response="000" foes="000" cont="0"/>
    </junction>
    <junction id="J4" type="priority" x="118.58" y="80.22" incLanes="e4_0 e4_1" intLanes=":J4_0_0 :J4_0_1" shape="124.98,80.22 118.58,80.22 122.38,85.37 123.83,83.94 124.33,83.12 124.69,82.23 124.91,81.26">
        <request index="0" response="00" foes="00" cont="0"/>
        <request index="1" response="00" foes="00" cont="0"/>
    </junction>
    <junction id="J5" type="priority" x="85.43" y="104.70" incLanes="e5_0 e5_1" intLanes=":J5_0_0 :J5_0_1" shape="89.23,109.85 85.43,104.70 85.41,111.10 86.93,111.04 87.47,110.92 87.97,110.71 88.53,110.36">
        <request index="0" response="00" foes="00" cont="0"/>
        <request index="1" response="00" foes="00" cont="0"/>
    </junction>
    <junction id="J6" type="priority" x="32.98" y="104.52" incLanes="e6_0 e6_1" intLanes=":J6_0_0 :J6_0_1" shape="32.96,110.92 32.98,104.52 30.07,110.22 31.08,110.70 31.45,110.82 31.84,110.89 32.32,110.91">
        <request index="0" response="00" foes="00" cont="0"/>
        <request index="1" response="00" foes="00" cont="0"/>
    </junction>
    <junction id="J7" type="priority" x="5.54" y="90.51" incLanes="e7_0 e7_1" intLanes=":J7_0_0 :J7_0_1 :J7_2_0 :J7_2_1" shape="6.19,98.03 9.10,92.33 7.52,91.12 7.32,90.51 7.52,89.91 8.12,89.31 9.11,88.71 6.23,82.99 3.75,83.75 2.67,83.67 1.70,83.29 0.84,82.61 0.09,81.62 -5.36,84.97 -3.46,88.24 -2.07,90.78 -0.79,92.80 0.76,94.53 2.96,96.20">
        <request index="0" response="0000" foes="0000" cont="0"/>
        <request index="1" response="0000" foes="0000" cont="0"/>
        <request index="2" response="0000" foes="0000" cont="0"/>
        <request index="3" response="0000" foes="0000" cont="0"/>
    </junction>
    <junction id="J8" type="priority" x="57.06" y="64.57" incLanes="e9_0 e9_1" intLanes=":J8_0_0 :J8_0_1" shape="53.99,58.79 48.34,61.80 51.22,67.51 52.92,66.45 54.12,65.24 54.83,63.86 55.05,62.33 54.77,60.64">
        <request index="0" response="00" foes="00" cont="0"/>
        <request index="1" response="00" foes="00" cont="0"/>
    </junction>
    <junction id="J9" type="dead_end" x="-40.06" y="54.31" incLanes="" intLanes="" shape="-40.06,54.31 -40.08,51.11"/>

    <connection from="e0" to="e1" fromLane="0" toLane="0" via=":J0_2_0" dir="s" state="m"/>
    <connection from="e0" to="e1" fromLane="0" toLane="1" via=":J0_2_1" dir="s" state="m"/>
    <connection from="e1" to="e2" fromLane="0" toLane="0" via=":J1_2_0" dir="s" state="M"/>
    <connection from="e1" to="e2" fromLane="1" toLane="1" via=":J1_2_1" dir="s" state="M"/>
    <connection from="e10" to="e2" fromLane="0" toLane="0" via=":J1_0_0" dir="l" state="m"/>
    <connection from="e10" to="e2" fromLane="1" toLane="1" via=":J1_0_1" dir="l" state="m"/>
    <connection from="e2" to="e3" fromLane="0" toLane="0" via=":J2_0_0" dir="s" state="M"/>
    <connection from="e2" to="e3" fromLane="1" toLane="1" via=":J2_0_1" dir="s" state="M"/>
    <connection from="e3" to="e11" fromLane="0" toLane="0" via=":J3_0_0" dir="r" state="M"/>
    <connection from="e3" to="e4" fromLane="0" toLane="0" via=":J3_1_0" dir="l" state="M"/>
    <connection from="e3" to="e4" fromLane="1" toLane="1" via=":J3_1_1" dir="l" state="M"/>
    <connection from="e4" to="e5" fromLane="0" toLane="0" via=":J4_0_0" dir="l" state="M"/>
    <connection from="e4" to="e5" fromLane="1" toLane="1" via=":J4_0_1" dir="l" state="M"/>
    <connection from="e5" to="e6" fromLane="0" toLane="0" via=":J5_0_0" dir="s" state="M"/>
    <connection from="e5" to="e6" fromLane="1" toLane="1" via=":J5_0_1" dir="s" state="M"/>
    <connection from="e6" to="e7" fromLane="0" toLane="0" via=":J6_0_0" dir="s" state="M"/>
    <connection from="e6" to="e7" fromLane="1" toLane="1" via=":J6_0_1" dir="s" state="M"/>
    <connection from="e7" to="e8" fromLane="0" toLane="0" via=":J7_0_0" dir="s" state="M"/>
    <connection from="e7" to="e8" fromLane="1" toLane="1" via=":J7_0_1" dir="s" state="M"/>
    <connection from="e7" to="e9" fromLane="1" toLane="0" via=":J7_2_0" dir="l" state="M"/>
    <connection from="e7" to="e9" fromLane="1" toLane="1" via=":J7_2_1" dir="l" state="M"/>
    <connection from="e8" to="e1" fromLane="0" toLane="0" via=":J0_0_0" dir="l" state="M"/>
    <connection from="e8" to="e1" fromLane="1" toLane="1" via=":J0_0_1" dir="l" state="M"/>
    <connection from="e9" to="e10" fromLane="0" toLane="0" via=":J8_0_0" dir="r" state="M"/>
    <connection from="e9" to="e10" fromLane="1" toLane="1" via=":J8_0_1" dir="r" state="M"/>

    <connection from=":J0_0" to="e1" fromLane="0" toLane="0" dir="l" state="M"/>
    <connection from=":J0_0" to="e1" fromLane="1" toLane="1" dir="l" state="M"/>
    <connection from=":J0_2" to="e1" fromLane="0" toLane="0" dir="s" state="M"/>
    <connection from=":J0_2" to="e1" fromLane="1" toLane="1" dir="s" state="M"/>
    <connection from=":J1_0" to="e2" fromLane="0" toLane="0" dir="l" state="M"/>
    <connection from=":J1_0" to="e2" fromLane="1" toLane="1" dir="l" state="M"/>
    <connection from=":J1_2" to="e2" fromLane="0" toLane="0" dir="s" state="M"/>
    <connection from=":J1_2" to="e2" fromLane="1" toLane="1" dir="s" state="M"/>
    <connection from=":J2_0" to="e3" fromLane="0" toLane="0" dir="s" state="M"/>
    <connection from=":J2_0" to="e3" fromLane="1" toLane="1" dir="s" state="M"/>
    <connection from=":J3_0" to="e11" fromLane="0" toLane="0" dir="r" state="M"/>
    <connection from=":J3_1" to="e4" fromLane="0" toLane="0" dir="l" state="M"/>
    <connection from=":J3_1" to="e4" fromLane="1" toLane="1" dir="l" state="M"/>
    <connection from=":J4_0" to="e5" fromLane="0" toLane="0" dir="l" state="M"/>
    <connection from=":J4_0" to="e5" fromLane="1" toLane="1" dir="l" state="M"/>
    <connection from=":J5_0" to="e6" fromLane="0" toLane="0" dir="s" state="M"/>
    <connection from=":J5_0" to="e6" fromLane="1" toLane="1" dir="s" state="M"/>
    <connection from=":J6_0" to="e7" fromLane="0" toLane="0" dir="s" state="M"/>
    <connection from=":J6_0" to="e7" fromLane="1" toLane="1" dir="s" state="M"/>
    <connection from=":J7_0" to="e8" fromLane="0" toLane="0" dir="s" state="M"/>
    <connection from=":J7_0" to="e8" fromLane="1" toLane="1" dir="s" state="M"/>
    <connection from=":J7_2" to="e9" fromLane="0" toLane="0" dir="l" state="M"/>
    <connection from=":J7_2" to="e9" fromLane="1" toLane="1" dir="l" state="M"/>
    <connection from=":J8_0" to="e10" fromLane="0" toLane="0" dir="r" state="M"/>
    <connection from=":J8_0" to="e10" fromLane="1" toLane="1" dir="r" state="M"/>

</net>
