<?xml version="1.0" encoding="UTF-8"?>

<!-- generated on 2023-12-17 09:42:59 by Eclipse SUMO sumo Version 1.17.0
-->

<configuration xmlns:xsi="http://www.w3.org/2001/XMLSchema-instance" xsi:noNamespaceSchemaLocation="http://sumo.dlr.de/xsd/sumoConfiguration.xsd">

    <input>
        <net-file value="demo_network.net.xml"/>
        <route-files value="demo_network.rou.xml"/>
        <additional-files value="demo_network.add.xml"/>
    </input>

</configuration>
