
    <routes>
        <vType id="auto" 
                vClass="passenger" length="5" carFollowModel="Krauss" color="255,204,0" accel="2.6" decel="4.5" maxSpeed="30" begin="0" end="1500" safety="none" 
                sigma="1.0"/>

          #  <route id="route_0" edges="e1 e2 e3 e4 e5 m1 m2 e3 e4 e5 e6 e7 m4 m3 m2 e3 e4 e5 e6 e7 m4 m5 e2 e3 e4 e5 e6 e7 e8"/>
        #  <route id="route_1" edges="e1 e2 e3 e4 e5 m1 m3 e2 e3 e4 e5 m1 m3 e2 e3 e4 e5 e6 e7 e8 e1 e2 e3 e4 e5 m1 m3 e2 e3 e4 e5 m1 m3 e2 e3 e4 e5 e6 e7 e8"/>

         <vehicle id="pso_0" type="auto" route="route_0" depart="28.25068311007328" begin="100" end="1500" from="e1" to="e8" />
 <vehicle id="pso_1" type="auto" route="route_1" depart="3.4433636067355042" begin="100" end="1500" from="e1" to="e8" />
 <vehicle id="pso_2" type="auto" route="route_0" depart="13.177636557724888" begin="100" end="1500" from="e1" to="e8" />
 <vehicle id="pso_3" type="auto" route="route_1" depart="20.52775820707735" begin="100" end="1500" from="e1" to="e8" />
 <vehicle id="pso_4" type="auto" route="route_0" depart="4.990566882392445" begin="100" end="1500" from="e1" to="e8" />
 <vehicle id="pso_5" type="auto" route="route_1" depart="18.806129284762928" begin="100" end="1500" from="e1" to="e8" />
 <vehicle id="pso_6" type="auto" route="route_0" depart="19.65618714656574" begin="100" end="1500" from="e1" to="e8" />
 <vehicle id="pso_7" type="auto" route="route_1" depart="17.013647690731794" begin="100" end="1500" from="e1" to="e8" />
 <vehicle id="pso_8" type="auto" route="route_0" depart="23.40557722751238" begin="100" end="1500" from="e1" to="e8" />
 <vehicle id="pso_9" type="auto" route="route_1" depart="18.878530202816354" begin="100" end="1500" from="e1" to="e8" />
 <vehicle id="pso_10" type="auto" route="route_0" depart="13.735028047255492" begin="100" end="1500" from="e1" to="e8" />
 <vehicle id="pso_11" type="auto" route="route_1" depart="19.43759789778392" begin="100" end="1500" from="e1" to="e8" />
 <vehicle id="pso_12" type="auto" route="route_0" depart="6.376505090308308" begin="100" end="1500" from="e1" to="e8" />
 <vehicle id="pso_13" type="auto" route="route_1" depart="6.39900833875755" begin="100" end="1500" from="e1" to="e8" />
 <vehicle id="pso_14" type="auto" route="route_0" depart="3.93370042852694" begin="100" end="1500" from="e1" to="e8" />
 <vehicle id="pso_15" type="auto" route="route_1" depart="11.8187004505399" begin="100" end="1500" from="e1" to="e8" />
 <vehicle id="pso_16" type="auto" route="route_0" depart="9.27126994264952" begin="100" end="1500" from="e1" to="e8" />
 <vehicle id="pso_17" type="auto" route="route_1" depart="3.3296598836525604" begin="100" end="1500" from="e1" to="e8" />
 <vehicle id="pso_18" type="auto" route="route_0" depart="28.749742134654838" begin="100" end="1500" from="e1" to="e8" />
 <vehicle id="pso_19" type="auto" route="route_1" depart="13.798910617023488" begin="100" end="1500" from="e1" to="e8" />
 <vehicle id="pso_20" type="auto" route="route_0" depart="26.858393554939333" begin="100" end="1500" from="e1" to="e8" />
 <vehicle id="pso_21" type="auto" route="route_1" depart="29.35070188375455" begin="100" end="1500" from="e1" to="e8" />
 <vehicle id="pso_22" type="auto" route="route_0" depart="20.095393197813717" begin="100" end="1500" from="e1" to="e8" />
 <vehicle id="pso_23" type="auto" route="route_1" depart="4.113059862778973" begin="100" end="1500" from="e1" to="e8" />
 <vehicle id="pso_24" type="auto" route="route_0" depart="1.1873185171897354" begin="100" end="1500" from="e1" to="e8" />
 <vehicle id="pso_25" type="auto" route="route_1" depart="23.617569729231196" begin="100" end="1500" from="e1" to="e8" />
 <vehicle id="pso_26" type="auto" route="route_0" depart="27.579104307671006" begin="100" end="1500" from="e1" to="e8" />
 <vehicle id="pso_27" type="auto" route="route_1" depart="6.66342424445626" begin="100" end="1500" from="e1" to="e8" />
 <vehicle id="pso_28" type="auto" route="route_0" depart="11.822995742699435" begin="100" end="1500" from="e1" to="e8" />
 <vehicle id="pso_29" type="auto" route="route_1" depart="15.408922242923309" begin="100" end="1500" from="e1" to="e8" />


    </routes>
    